tests/fuzzer/corpus_json/21_random_002.json
{
  "version": "1.0",
  "type": "input",
  "is_batch": false,
  "attributes": {},
  "data": {
    "node": [
      {
        "id": 0,
        "u_rated": 230.0
      },
      {
        "id": 1,
        "u_rated": 230.0
      },
      {
        "id": 2,
        "u_rated": 230.0
      },
      {
        "id": 3,
        "u_rated": 230.0
      },
      {
        "id": 4,
        "u_rated": 230.0
      },
      {
        "id": 5,
        "u_rated": 230.0
      },
      {
        "id": 6,
        "u_rated": 230.0
      },
      {
        "id": 7,
        "u_rated": 230.0
      },
      {
        "id": 8,
        "u_rated": 230.0
      },
      {
        "id": 9,
        "u_rated": 230.0
      },
      {
        "id": 10,
        "u_rated": 230.0
      },
      {
        "id": 11,
        "u_rated": 230.0
      },
      {
        "id": 12,
        "u_rated": 230.0
      },
      {
        "id": 13,
        "u_rated": 230.0
      },
      {
        "id": 14,
        "u_rated": 230.0
      }
    ],
    "source": [
      {
        "id": 15,
        "node": 0,
        "status": 1,
        "u_ref": 0.9722114947967215,
        "u_ref_angle": 0.0,
        "sk": 91675628.92633308,
        "rx_ratio": 0.08454180783022186,
        "z01_ratio": 1.0
      }
    ],
    "line": [
      {
        "id": 16,
        "from_node": 0,
        "to_node": 1,
        "from_status": 1,
        "to_status": 1,
        "r1": 4.269171927427368,
        "x1": 1.2579164879748284,
        "c1": 2.122188106686006e-07,
        "tan1": 0.0,
        "r0": 0.3,
        "x0": 0.3,
        "c0": 1e-09,
        "tan0": 0.0,
        "i_n": 45.37709731900671
      },
      {
        "id": 17,
        "from_node": 1,
        "to_node": 2,
        "from_status": 1,
        "to_status": 1,
        "r1": 3.406230924963313,
        "x1": 4.998593979726346,
        "c1": 6.384713381046937e-07,
        "tan1": 0.0,
        "r0": 0.3,
        "x0": 0.3,
        "c0": 1e-09,
        "tan0": 0.0,
        "i_n": 805.6327487214055
      },
      {
        "id": 18,
        "from_node": 2,
        "to_node": 3,
        "from_status": 1,
        "to_status": 1,
        "r1": 4.301220513687266,
        "x1": 2.5453372653348545,
        "c1": 3.7206029552353203e-07,
        "tan1": 0.0,
        "r0": 0.3,
        "x0": 0.3,
        "c0": 1e-09,
        "tan0": 0.0,
        "i_n": 936.3545683056536
      },
      {
        "id": 19,
        "from_node": 3,
        "to_node": 4,
        "from_status": 1,
        "to_status": 1,
        "r1": 2.5103364612251795,
        "x1": 4.506038987484735,
        "c1": 8.710329683679703e-07,
        "tan1": 0.0,
        "r0": 0.3,
        "x0": 0.3,
        "c0": 1e-09,
        "tan0": 0.0,
        "i_n": 370.3742835688957
      },
      {
        "id": 20,
        "from_node": 4,
        "to_node": 5,
        "from_status": 1,
        "to_status": 1,
        "r1": 4.659232769849342,
        "x1": 4.538750550896485,
        "c1": 4.2361096957169063e-07,
        "tan1": 0.0,
        "r0": 0.3,
        "x0": 0.3,
        "c0": 1e-09,
        "tan0": 0.0,
        "i_n": 885.2239208705369
      },
      {
        "id": 21,
        "from_node": 5,
        "to_node": 6,
        "from_status": 1,
        "to_status": 1,
        "r1": 0.8224421203326565,
        "x1": 0.8871821774588301,
        "c1": 2.3060267436398618e-07,
        "tan1": 0.0,
        "r0": 0.3,
        "x0": 0.3,
        "c0": 1e-09,
        "tan0": 0.0,
        "i_n": 184.95278106549003
      },
      {
        "id": 22,
        "from_node": 6,
        "to_node": 7,
        "from_status": 1,
        "to_status": 1,
        "r1": 0.8679437688252845,
        "x1": 2.5508334677749813,
        "c1": 3.596914037964013e-07,
        "tan1": 0.0,
        "r0": 0.3,
        "x0": 0.3,
        "c0": 1e-09,
        "tan0": 0.0,
        "i_n": 518.6000264267243
      },
      {
        "id": 23,
        "from_node": 7,
        "to_node": 8,
        "from_status": 1,
        "to_status": 1,
        "r1": 2.7994515814573875,
        "x1": 4.975888352601659,
        "c1": 4.4563761202067076e-07,
        "tan1": 0.0,
        "r0": 0.3,
        "x0": 0.3,
        "c0": 1e-09,
        "tan0": 0.0,
        "i_n": 420.52428444517903
      },
      {
        "id": 24,
        "from_node": 8,
        "to_node": 9,
        "from_status": 1,
        "to_status": 1,
        "r1": 2.626828585065664,
        "x1": 4.54239039729854,
        "c1": 3.6425552360525445e-07,
        "tan1": 0.0,
        "r0": 0.3,
        "x0": 0.3,
        "c0": 1e-09,
        "tan0": 0.0,
        "i_n": 597.5507035870038
      },
      {
        "id": 25,
        "from_node": 9,
        "to_node": 10,
        "from_status": 1,
        "to_status": 1,
        "r1": 1.8094319098061535,
        "x1": 4.2948340982906865,
        "c1": 4.457689610211897e-07,
        "tan1": 0.0,
        "r0": 0.3,
        "x0": 0.3,
        "c0": 1e-09,
        "tan0": 0.0,
        "i_n": 955.383788767934
      },
      {
        "id": 26,
        "from_node": 10,
        "to_node": 11,
        "from_status": 1,
        "to_status": 1,
        "r1": 1.999317471502382,
        "x1": 3.692951107822608,
        "c1": 6.549109781559981e-07,
        "tan1": 0.0,
        "r0": 0.3,
        "x0": 0.3,
        "c0": 1e-09,
        "tan0": 0.0,
        "i_n": 257.4027500682605
      },
      {
        "id": 27,
        "from_node": 11,
        "to_node": 12,
        "from_status": 1,
        "to_status": 1,
        "r1": 1.3955112146151087,
        "x1": 2.4903271533862146,
        "c1": 5.153922053540086e-07,
        "tan1": 0.0,
        "r0": 0.3,
        "x0": 0.3,
        "c0": 1e-09,
        "tan0": 0.0,
        "i_n": 798.2540822057796
      },
      {
        "id": 28,
        "from_node": 12,
        "to_node": 13,
        "from_status": 1,
        "to_status": 1,
        "r1": 3.308428000019897,
        "x1": 2.2734439335651913,
        "c1": 9.031766538397383e-07,
        "tan1": 0.0,
        "r0": 0.3,
        "x0": 0.3,
        "c0": 1e-09,
        "tan0": 0.0,
        "i_n": 357.26705843231093
      },
      {
        "id": 29,
        "from_node": 13,
        "to_node": 14,
        "from_status": 1,
        "to_status": 1,
        "r1": 3.6294260218862604,
        "x1": 2.787914265832787,
        "c1": 4.565511158601086e-07,
        "tan1": 0.0,
        "r0": 0.3,
        "x0": 0.3,
        "c0": 1e-09,
        "tan0": 0.0,
        "i_n": 662.2964487939543
      }
    ],
    "sym_load": [
      {
        "id": 30,
        "node": 7,
        "status": 1,
        "type": 1,
        "p_specified": 91472.3423112316,
        "q_specified": 4124.116127352094
      },
      {
        "id": 31,
        "node": 8,
        "status": 1,
        "type": 2,
        "p_specified": 1471.3386467313685,
        "q_specified": 2316.1643129504773
      },
      {
        "id": 32,
        "node": 9,
        "status": 1,
        "type": 2,
        "p_specified": -58436.30509241455,
        "q_specified": 237.8331671056494
      },
      {
        "id": 33,
        "node": 12,
        "status": 1,
        "type": 1,
        "p_specified": 45189.85749545964,
        "q_specified": 8153.072419026415
      },
      {
        "id": 34,
        "node": 13,
        "status": 1,
        "type": 2,
        "p_specified": -78768.61533707546,
        "q_specified": 1488.2991690799481
      },
      {
        "id": 35,
        "node": 14,
        "status": 1,
        "type": 2,
        "p_specified": -54676.69415104739,
        "q_specified": 7509.823428964755
      }
    ],
    "shunt": [
      {
        "id": 36,
        "node": 0,
        "status": 1,
        "g1": 5.2236266535893e-05,
        "b1": 7.078860143697442e-05,
        "g0": 0.0001,
        "b0": 0.0001
      }
    ]
  }
}